example-pypsa/solved_network_RTS_GMLS_1p5xload+0emission+gen_and_line_expansion.m
function mpc = solved_network_RTS_GMLS_1p5xload+0emission+gen_and_line_expansion

%% MATPOWER Case Format : Version 2
mpc.version = '2';

%% system MVA base
mpc.baseMVA = 100.0;

%% bus data
%	bus_i	type	Pd	Qd	Gs	Bs	area	Vm	Va	baseKV	zone	Vmax	Vmin
mpc.bus = [
	1.0	1.0	0.0	0.0	0.0	0.0	1.0	1.047	0.0	138.0	1.0	1.05	0.95;
	2.0	2.0	0.0	0.0	0.0	0.0	1.0	1.047	0.0	138.0	1.0	1.05	0.95;
	3.0	3.0	0.0	0.0	0.0	0.0	1.0	1.0	0.0	138.0	1.0	1.05	0.95;
	4.0	4.0	0.0	0.0	0.0	0.0	1.0	1.0	0.0	138.0	1.0	1.05	0.95;
	5.0	5.0	0.0	0.0	0.0	0.0	1.0	1.0	0.0	138.0	1.0	1.05	0.95;
	6.0	6.0	0.0	0.0	0.0	0.0	1.0	1.0	0.0	138.0	1.0	1.05	0.95;
	7.0	7.0	0.0	0.0	0.0	0.0	1.0	1.05	0.0	138.0	1.0	1.05	0.95;
	8.0	8.0	0.0	0.0	0.0	0.0	1.0	1.0	0.0	138.0	1.0	1.05	0.95;
	9.0	9.0	0.0	0.0	0.0	0.0	1.0	1.0	0.0	138.0	1.0	1.05	0.95;
	10.0	10.0	0.0	0.0	0.0	0.0	1.0	1.0	0.0	138.0	1.0	1.05	0.95;
	11.0	11.0	0.0	0.0	0.0	0.0	1.0	1.0	0.0	230.0	1.0	1.05	0.95;
	12.0	12.0	0.0	0.0	0.0	0.0	1.0	1.0	0.0	230.0	1.0	1.05	0.95;
	13.0	13.0	0.0	0.0	0.0	0.0	1.0	1.035	0.0	230.0	1.0	1.05	0.95;
	14.0	14.0	0.0	0.0	0.0	0.0	1.0	1.0	0.0	230.0	1.0	1.05	0.95;
	15.0	15.0	0.0	0.0	0.0	0.0	1.0	1.043	0.0	230.0	1.0	1.05	0.95;
	16.0	16.0	0.0	0.0	0.0	0.0	1.0	1.046	0.0	230.0	1.0	1.05	0.95;
	17.0	17.0	0.0	0.0	0.0	0.0	1.0	1.0	0.0	230.0	1.0	1.05	0.95;
	18.0	18.0	0.0	0.0	0.0	0.0	1.0	1.05	0.0	230.0	1.0	1.05	0.95;
	19.0	19.0	0.0	0.0	0.0	0.0	1.0	1.0	0.0	230.0	1.0	1.05	0.95;
	20.0	20.0	0.0	0.0	0.0	0.0	1.0	1.0	0.0	230.0	1.0	1.05	0.95;
	21.0	21.0	0.0	0.0	0.0	0.0	1.0	1.05	0.0	230.0	1.0	1.05	0.95;
	22.0	22.0	0.0	0.0	0.0	0.0	1.0	1.05	0.0	230.0	1.0	1.05	0.95;
	23.0	23.0	0.0	0.0	0.0	0.0	1.0	1.05	0.0	230.0	1.0	1.05	0.95;
	24.0	24.0	0.0	0.0	0.0	0.0	1.0	1.0	0.0	230.0	1.0	1.05	0.95;
	25.0	25.0	0.0	0.0	0.0	0.0	1.0	1.05	0.0	138.0	1.0	1.05	0.95;
	26.0	26.0	0.0	0.0	0.0	0.0	1.0	1.05	0.0	138.0	1.0	1.05	0.95;
	27.0	27.0	0.0	0.0	0.0	0.0	1.0	1.0	0.0	138.0	1.0	1.05	0.95;
	28.0	28.0	0.0	0.0	0.0	0.0	1.0	1.0	0.0	138.0	1.0	1.05	0.95;
	29.0	29.0	0.0	0.0	0.0	0.0	1.0	1.0	0.0	138.0	1.0	1.05	0.95;
	30.0	30.0	0.0	0.0	0.0	0.0	1.0	1.0	0.0	138.0	1.0	1.05	0.95;
	31.0	31.0	0.0	0.0	0.0	0.0	1.0	0.9699	0.0	138.0	1.0	1.05	0.95;
	32.0	32.0	0.0	0.0	0.0	0.0	1.0	1.0	0.0	138.0	1.0	1.05	0.95;
	33.0	33.0	0.0	0.0	0.0	0.0	1.0	1.0	0.0	138.0	1.0	1.05	0.95;
	34.0	34.0	0.0	0.0	0.0	0.0	1.0	1.0	0.0	138.0	1.0	1.05	0.95;
	35.0	35.0	0.0	0.0	0.0	0.0	1.0	1.0	0.0	230.0	1.0	1.05	0.95;
	36.0	36.0	0.0	0.0	0.0	0.0	1.0	1.0	0.0	230.0	1.0	1.05	0.95;
	37.0	37.0	0.0	0.0	0.0	0.0	1.0	1.05	0.0	230.0	1.0	1.05	0.95;
	38.0	38.0	0.0	0.0	0.0	0.0	1.0	1.0	0.0	230.0	1.0	1.05	0.95;
	39.0	39.0	0.0	0.0	0.0	0.0	1.0	1.044	0.0	230.0	1.0	1.05	0.95;
	40.0	40.0	0.0	0.0	0.0	0.0	1.0	1.047	0.0	230.0	1.0	1.05	0.95;
	41.0	41.0	0.0	0.0	0.0	0.0	1.0	1.0	0.0	230.0	1.0	1.05	0.95;
	42.0	42.0	0.0	0.0	0.0	0.0	1.0	1.05	0.0	230.0	1.0	1.05	0.95;
	43.0	43.0	0.0	0.0	0.0	0.0	1.0	1.0	0.0	230.0	1.0	1.05	0.95;
	44.0	44.0	0.0	0.0	0.0	0.0	1.0	1.0	0.0	230.0	1.0	1.05	0.95;
	45.0	45.0	0.0	0.0	0.0	0.0	1.0	1.05	0.0	230.0	1.0	1.05	0.95;
	46.0	46.0	0.0	0.0	0.0	0.0	1.0	1.05	0.0	230.0	1.0	1.05	0.95;
	47.0	47.0	0.0	0.0	0.0	0.0	1.0	1.05	0.0	230.0	1.0	1.05	0.95;
	48.0	48.0	0.0	0.0	0.0	0.0	1.0	1.0	0.0	230.0	1.0	1.05	0.95;
	49.0	49.0	0.0	0.0	0.0	0.0	1.0	1.05	0.0	138.0	1.0	1.05	0.95;
	50.0	50.0	0.0	0.0	0.0	0.0	1.0	1.05	0.0	138.0	1.0	1.05	0.95;
	51.0	51.0	0.0	0.0	0.0	0.0	1.0	1.0	0.0	138.0	1.0	1.05	0.95;
	52.0	52.0	0.0	0.0	0.0	0.0	1.0	1.0	0.0	138.0	1.0	1.05	0.95;
	53.0	53.0	0.0	0.0	0.0	0.0	1.0	1.0	0.0	138.0	1.0	1.05	0.95;
	54.0	54.0	0.0	0.0	0.0	0.0	1.0	1.0	0.0	138.0	1.0	1.05	0.95;
	55.0	55.0	0.0	0.0	0.0	0.0	1.0	0.9568	0.0	138.0	1.0	1.05	0.95;
	56.0	56.0	0.0	0.0	0.0	0.0	1.0	1.0	0.0	138.0	1.0	1.05	0.95;
	57.0	57.0	0.0	0.0	0.0	0.0	1.0	1.0	0.0	138.0	1.0	1.05	0.95;
	58.0	58.0	0.0	0.0	0.0	0.0	1.0	1.0	0.0	138.0	1.0	1.05	0.95;
	59.0	59.0	0.0	0.0	0.0	0.0	1.0	1.0	0.0	230.0	1.0	1.05	0.95;
	60.0	60.0	0.0	0.0	0.0	0.0	1.0	1.0	0.0	230.0	1.0	1.05	0.95;
	61.0	61.0	0.0	0.0	0.0	0.0	1.0	1.035	0.0	230.0	1.0	1.05	0.95;
	62.0	62.0	0.0	0.0	0.0	0.0	1.0	1.0	0.0	230.0	1.0	1.05	0.95;
	63.0	63.0	0.0	0.0	0.0	0.0	1.0	1.042	0.0	230.0	1.0	1.05	0.95;
	64.0	64.0	0.0	0.0	0.0	0.0	1.0	1.045	0.0	230.0	1.0	1.05	0.95;
	65.0	65.0	0.0	0.0	0.0	0.0	1.0	1.0	0.0	230.0	1.0	1.05	0.95;
	66.0	66.0	0.0	0.0	0.0	0.0	1.0	1.05	0.0	230.0	1.0	1.05	0.95;
	67.0	67.0	0.0	0.0	0.0	0.0	1.0	1.0	0.0	230.0	1.0	1.05	0.95;
	68.0	68.0	0.0	0.0	0.0	0.0	1.0	1.0	0.0	230.0	1.0	1.05	0.95;
	69.0	69.0	0.0	0.0	0.0	0.0	1.0	1.05	0.0	230.0	1.0	1.05	0.95;
	70.0	70.0	0.0	0.0	0.0	0.0	1.0	1.05	0.0	230.0	1.0	1.05	0.95;
	71.0	71.0	0.0	0.0	0.0	0.0	1.0	1.05	0.0	230.0	1.0	1.05	0.95;
	72.0	72.0	0.0	0.0	0.0	0.0	1.0	1.0	0.0	230.0	1.0	1.05	0.95;
	73.0	73.0	0.0	0.0	0.0	0.0	1.0	1.0	0.0	230.0	1.0	1.05	0.95;
];

%% generator data
%	bus	Pg	Qg	Qmax	Qmin	Vg	mBase	status	Pmax	Pmin	Pc1	Pc2	Qc1min	Qc1max	Qc2min	Qc2max	ramp_agc	ramp_10	ramp_30	ramp_q	apf
mpc.gen = [
	1.0	0.0	-0.0	0.001953	0.0	1.047	0.1953	1.0	0.002762	0.0	0.0	0.002762	0.0	0.001953	0.0	0.001953	0.002762	0.002762	0.002762	0.001953	1.0;
	68.0	0.0	-0.0	0.0003184	0.0	1.0	0.03184	1.0	0.0004503	0.0	0.0	0.0004503	0.0	0.0003184	0.0	0.0003184	0.0004503	0.0004503	0.0004503	0.0003184	1.0;
	3.0	0.0	-0.0	1.676	0.0	1.0	167.6	1.0	2.37	0.0	0.0	2.37	0.0	1.676	0.0	1.676	2.37	2.37	2.37	1.676	1.0;
	62.0	0.0	-0.0	28.09	0.0	1.0	2809.0	1.0	39.73	0.0	0.0	39.73	0.0	28.09	0.0	28.09	39.73	39.73	39.73	28.09	1.0;
	51.0	0.0	-0.0	52.29	0.0	1.0	5229.0	1.0	73.95	0.0	0.0	73.95	0.0	52.29	0.0	52.29	73.95	73.95	73.95	52.29	1.0;
	60.0	0.0	-0.0	0.0005301	0.0	1.0	0.05301	1.0	0.0007497	0.0	0.0	0.0007497	0.0	0.0005301	0.0	0.0005301	0.0007497	0.0007497	0.0007497	0.0005301	1.0;
	61.0	0.0	-0.0	0.0001463	0.0	1.035	0.01463	1.0	0.0002068	0.0	0.0	0.0002068	0.0	0.0001463	0.0	0.0001463	0.0002068	0.0002068	0.0002068	0.0001463	1.0;
	68.0	0.0	-0.0	0.0001632	0.0	1.0	0.01632	1.0	0.0002308	0.0	0.0	0.0002308	0.0	0.0001632	0.0	0.0001632	0.0002308	0.0002308	0.0002308	0.0001632	1.0;
	72.0	0.0	-0.0	8.281	0.0	1.0	828.1	1.0	11.71	0.0	0.0	11.71	0.0	8.281	0.0	8.281	11.71	11.71	11.71	8.281	1.0;
	61.0	0.0	-0.0	0.001056	0.0	1.035	0.1056	1.0	0.001493	0.0	0.0	0.001493	0.0	0.001056	0.0	0.001056	0.001493	0.001493	0.001493	0.001056	1.0;
	18.0	0.0	-0.0	0.005343	0.0	1.05	0.5343	1.0	0.007557	0.0	0.0	0.007557	0.0	0.005343	0.0	0.005343	0.007557	0.007557	0.007557	0.005343	1.0;
	18.0	0.0	-0.0	0.006228	0.0	1.05	0.6228	1.0	0.008807	0.0	0.0	0.008807	0.0	0.006228	0.0	0.006228	0.008807	0.008807	0.008807	0.006228	1.0;
	1.0	0.0	-0.0	0.001422	0.0	1.047	0.1422	1.0	0.002011	0.0	0.0	0.002011	0.0	0.001422	0.0	0.001422	0.002011	0.002011	0.002011	0.001422	1.0;
	61.0	0.0	-0.0	0.0001446	0.0	1.035	0.01446	1.0	0.0002045	0.0	0.0	0.0002045	0.0	0.0001446	0.0	0.0001446	0.0002045	0.0002045	0.0002045	0.0001446	1.0;
	18.0	0.0	-0.0	0.001444	0.0	1.05	0.1444	1.0	0.002042	0.0	0.0	0.002042	0.0	0.001444	0.0	0.001444	0.002042	0.002042	0.002042	0.001444	1.0;
	61.0	0.0	-0.0	0.0001214	0.0	1.035	0.01214	1.0	0.0001716	0.0	0.0	0.0001716	0.0	0.0001214	0.0	0.0001214	0.0001716	0.0001716	0.0001716	0.0001214	1.0;
	61.0	0.0	-0.0	2.27	0.0	1.035	227.0	1.0	3.21	0.0	0.0	3.21	0.0	2.27	0.0	2.27	3.21	3.21	3.21	2.27	1.0;
	61.0	0.0	-0.0	0.0001441	0.0	1.035	0.01441	1.0	0.0002038	0.0	0.0	0.0002038	0.0	0.0001441	0.0	0.0001441	0.0002038	0.0002038	0.0002038	0.0001441	1.0;
	1.0	0.0	-0.0	0.008457	0.0	1.047	0.8457	1.0	0.01196	0.0	0.0	0.01196	0.0	0.008457	0.0	0.008457	0.01196	0.01196	0.01196	0.008457	1.0;
	18.0	0.0	-0.0	0.0008514	0.0	1.05	0.08514	1.0	0.001204	0.0	0.0	0.001204	0.0	0.0008514	0.0	0.0008514	0.001204	0.001204	0.001204	0.0008514	1.0;
	2.0	0.0	-0.0	1.173	0.0	1.047	117.3	1.0	1.658	0.0	0.0	1.658	0.0	1.173	0.0	1.173	1.658	1.658	1.658	1.173	1.0;
	13.0	0.0	-0.0	4.757	0.0	1.035	475.7	1.0	6.727	0.0	0.0	6.727	0.0	4.757	0.0	4.757	6.727	6.727	6.727	4.757	1.0;
	61.0	0.0	-0.0	0.0001446	0.0	1.035	0.01446	1.0	0.0002045	0.0	0.0	0.0002045	0.0	0.0001446	0.0	0.0001446	0.0002045	0.0002045	0.0002045	0.0001446	1.0;
	68.0	0.0	-0.0	0.0001489	0.0	1.0	0.01489	1.0	0.0002106	0.0	0.0	0.0002106	0.0	0.0001489	0.0	0.0001489	0.0002106	0.0002106	0.0002106	0.0001489	1.0;
	4.0	0.0	-0.0	1.074	0.0	1.0	107.4	1.0	1.519	0.0	0.0	1.519	0.0	1.074	0.0	1.074	1.519	1.519	1.519	1.074	1.0;
	37.0	0.0	-0.0	2.5	0.0	1.05	250.0	1.0	3.536	0.0	0.0	3.536	0.0	2.5	0.0	2.5	3.536	3.536	3.536	2.5	1.0;
	61.0	0.0	-0.0	0.0001185	0.0	1.035	0.01185	1.0	0.0001677	0.0	0.0	0.0001677	0.0	0.0001185	0.0	0.0001185	0.0001677	0.0001677	0.0001677	0.0001185	1.0;
	39.0	0.0	-0.0	8.307	0.0	1.044	830.7	1.0	11.75	0.0	0.0	11.75	0.0	8.307	0.0	8.307	11.75	11.75	11.75	8.307	1.0;
	18.0	0.0	-0.0	0.0008825	0.0	1.05	0.08825	1.0	0.001248	0.0	0.0	0.001248	0.0	0.0008825	0.0	0.0008825	0.001248	0.001248	0.001248	0.0008825	1.0;
	61.0	0.0	-0.0	0.0001398	0.0	1.035	0.01398	1.0	0.0001977	0.0	0.0	0.0001977	0.0	0.0001398	0.0	0.0001398	0.0001977	0.0001977	0.0001977	0.0001398	1.0;
	2.0	0.0	-0.0	0.02657	0.0	1.047	2.657	1.0	0.03758	0.0	0.0	0.03758	0.0	0.02657	0.0	0.02657	0.03758	0.03758	0.03758	0.02657	1.0;
	18.0	0.0	-0.0	0.002461	0.0	1.05	0.2461	1.0	0.00348	0.0	0.0	0.00348	0.0	0.002461	0.0	0.002461	0.00348	0.00348	0.00348	0.002461	1.0;
	65.0	0.0	-0.0	30.58	0.0	1.0	3058.0	1.0	43.25	0.0	0.0	43.25	0.0	30.58	0.0	30.58	43.25	43.25	43.25	30.58	1.0;
	18.0	0.0	-0.0	2.981	0.0	1.05	298.1	1.0	4.216	0.0	0.0	4.216	0.0	2.981	0.0	2.981	4.216	4.216	4.216	2.981	1.0;
	61.0	0.0	-0.0	0.0001439	0.0	1.035	0.01439	1.0	0.0002035	0.0	0.0	0.0002035	0.0	0.0001439	0.0	0.0001439	0.0002035	0.0002035	0.0002035	0.0001439	1.0;
	19.0	0.0	-0.0	1.659	0.0	1.0	165.9	1.0	2.346	0.0	0.0	2.346	0.0	1.659	0.0	1.659	2.346	2.346	2.346	1.659	1.0;
	18.0	0.0	-0.0	0.002537	0.0	1.05	0.2537	1.0	0.003588	0.0	0.0	0.003588	0.0	0.002537	0.0	0.002537	0.003588	0.003588	0.003588	0.002537	1.0;
	61.0	0.0	-0.0	0.0001398	0.0	1.035	0.01398	1.0	0.0001977	0.0	0.0	0.0001977	0.0	0.0001398	0.0	0.0001398	0.0001977	0.0001977	0.0001977	0.0001398	1.0;
	67.0	0.0	-0.0	1.382	0.0	1.0	138.2	1.0	1.955	0.0	0.0	1.955	0.0	1.382	0.0	1.382	1.955	1.955	1.955	1.382	1.0;
	62.0	0.0	-0.0	0.0003527	0.0	1.0	0.03527	1.0	0.0004988	0.0	0.0	0.0004988	0.0	0.0003527	0.0	0.0003527	0.0004988	0.0004988	0.0004988	0.0003527	1.0;
	56.0	0.0	-0.0	1.795	0.0	1.0	179.5	1.0	2.538	0.0	0.0	2.538	0.0	1.795	0.0	1.795	2.538	2.538	2.538	1.795	1.0;
	61.0	0.0	-0.0	0.0001265	0.0	1.035	0.01265	1.0	0.0001789	0.0	0.0	0.0001789	0.0	0.0001265	0.0	0.0001265	0.0001789	0.0001789	0.0001789	0.0001265	1.0;
	72.0	0.0	-0.0	0.0615	0.0	1.0	6.15	1.0	0.08697	0.0	0.0	0.08697	0.0	0.0615	0.0	0.0615	0.08697	0.08697	0.08697	0.0615	1.0;
	61.0	0.0	-0.0	0.0001397	0.0	1.035	0.01397	1.0	0.0001976	0.0	0.0	0.0001976	0.0	0.0001397	0.0	0.0001397	0.0001976	0.0001976	0.0001976	0.0001397	1.0;
	61.0	0.0	-0.0	0.000149	0.0	1.035	0.0149	1.0	0.0002107	0.0	0.0	0.0002107	0.0	0.000149	0.0	0.000149	0.0002107	0.0002107	0.0002107	0.000149	1.0;
	58.0	0.0	-0.0	42.55	0.0	1.0	4255.0	1.0	60.18	0.0	0.0	60.18	0.0	42.55	0.0	42.55	60.18	60.18	60.18	42.55	1.0;
	68.0	0.0	-0.0	0.0001207	0.0	1.0	0.01207	1.0	0.0001707	0.0	0.0	0.0001707	0.0	0.0001207	0.0	0.0001207	0.0001707	0.0001707	0.0001707	0.0001207	1.0;
	58.0	0.0	-0.0	0.002113	0.0	1.0	0.2113	1.0	0.002988	0.0	0.0	0.002988	0.0	0.002113	0.0	0.002113	0.002988	0.002988	0.002988	0.002113	1.0;
	18.0	0.0	-0.0	0.001142	0.0	1.05	0.1142	1.0	0.001615	0.0	0.0	0.001615	0.0	0.001142	0.0	0.001142	0.001615	0.001615	0.001615	0.001142	1.0;
	62.0	0.0	-0.0	0.002726	0.0	1.0	0.2726	1.0	0.003855	0.0	0.0	0.003855	0.0	0.002726	0.0	0.002726	0.003855	0.003855	0.003855	0.002726	1.0;
	72.0	0.0	-0.0	11.05	0.0	1.0	1105.0	1.0	15.63	0.0	0.0	15.63	0.0	11.05	0.0	11.05	15.63	15.63	15.63	11.05	1.0;
	61.0	0.0	-0.0	0.000146	0.0	1.035	0.0146	1.0	0.0002065	0.0	0.0	0.0002065	0.0	0.000146	0.0	0.000146	0.0002065	0.0002065	0.0002065	0.000146	1.0;
	62.0	0.0	-0.0	0.05275	0.0	1.0	5.275	1.0	0.0746	0.0	0.0	0.0746	0.0	0.05275	0.0	0.05275	0.0746	0.0746	0.0746	0.05275	1.0;
	18.0	0.0	-0.0	0.002048	0.0	1.05	0.2048	1.0	0.002896	0.0	0.0	0.002896	0.0	0.002048	0.0	0.002048	0.002896	0.002896	0.002896	0.002048	1.0;
	1.0	0.0	-0.0	2.883	0.0	1.047	288.3	1.0	4.077	0.0	0.0	4.077	0.0	2.883	0.0	2.883	4.077	4.077	4.077	2.883	1.0;
	57.0	0.0	-0.0	6.503	0.0	1.0	650.3	1.0	9.197	0.0	0.0	9.197	0.0	6.503	0.0	6.503	9.197	9.197	9.197	6.503	1.0;
	68.0	0.0	-0.0	0.0001647	0.0	1.0	0.01647	1.0	0.0002329	0.0	0.0	0.0002329	0.0	0.0001647	0.0	0.0001647	0.0002329	0.0002329	0.0002329	0.0001647	1.0;
	68.0	0.0	-0.0	7.654	0.0	1.0	765.4	1.0	10.82	0.0	0.0	10.82	0.0	7.654	0.0	7.654	10.82	10.82	10.82	7.654	1.0;
	68.0	0.0	-0.0	0.0001118	0.0	1.0	0.01118	1.0	0.000158	0.0	0.0	0.000158	0.0	0.0001118	0.0	0.0001118	0.000158	0.000158	0.000158	0.0001118	1.0;
	22.0	0.0	-0.0	43.69	0.0	1.05	4369.0	1.0	61.78	0.0	0.0	61.78	0.0	43.69	0.0	43.69	61.78	61.78	61.78	43.69	1.0;
	31.0	0.0	0.0	0.0	0.0	0.9699	0.0	1.0	0.0	0.0	0.0	0.0	0.0	0.0	0.0	0.0	0.0	0.0	0.0	0.0	1.0;
	13.0	0.0	0.0	0.0	0.0	1.035	0.0	1.0	0.0	0.0	0.0	0.0	0.0	0.0	0.0	0.0	0.0	0.0	0.0	0.0	1.0;
	55.0	0.0	0.0	0.0	0.0	0.9568	0.0	1.0	0.0	0.0	0.0	0.0	0.0	0.0	0.0	0.0	0.0	0.0	0.0	0.0	1.0;
	50.0	0.0	0.0	0.0	0.0	1.05	0.0	1.0	0.0	0.0	0.0	0.0	0.0	0.0	0.0	0.0	0.0	0.0	0.0	0.0	1.0;
	16.0	0.0	0.0	0.0	0.0	1.046	0.0	1.0	0.0	0.0	0.0	0.0	0.0	0.0	0.0	0.0	0.0	0.0	0.0	0.0	1.0;
	47.0	0.0	0.0	0.0	0.0	1.05	0.0	1.0	0.0	0.0	0.0	0.0	0.0	0.0	0.0	0.0	0.0	0.0	0.0	0.0	1.0;
	1.0	0.0	0.0	0.0	0.0	1.047	0.0	1.0	0.0	0.0	0.0	0.0	0.0	0.0	0.0	0.0	0.0	0.0	0.0	0.0	1.0;
	15.0	0.0	0.0	0.0	0.0	1.043	0.0	1.0	0.0	0.0	0.0	0.0	0.0	0.0	0.0	0.0	0.0	0.0	0.0	0.0	1.0;
	70.0	0.0	0.0	0.0	0.0	1.05	0.0	1.0	0.0	0.0	0.0	0.0	0.0	0.0	0.0	0.0	0.0	0.0	0.0	0.0	1.0;
	69.0	0.0	0.0	0.0	0.0	1.05	0.0	1.0	0.0	0.0	0.0	0.0	0.0	0.0	0.0	0.0	0.0	0.0	0.0	0.0	1.0;
	50.0	0.0	0.0	0.0	0.0	1.05	0.0	1.0	0.0	0.0	0.0	0.0	0.0	0.0	0.0	0.0	0.0	0.0	0.0	0.0	1.0;
	40.0	0.0	0.0	0.0	0.0	1.047	0.0	1.0	0.0	0.0	0.0	0.0	0.0	0.0	0.0	0.0	0.0	0.0	0.0	0.0	1.0;
	42.0	0.0	0.0	0.0	0.0	1.05	0.0	1.0	0.0	0.0	0.0	0.0	0.0	0.0	0.0	0.0	0.0	0.0	0.0	0.0	1.0;
	37.0	0.0	0.0	0.0	0.0	1.05	0.0	1.0	0.0	0.0	0.0	0.0	0.0	0.0	0.0	0.0	0.0	0.0	0.0	0.0	1.0;
	63.0	0.0	0.0	0.0	0.0	1.042	0.0	1.0	0.0	0.0	0.0	0.0	0.0	0.0	0.0	0.0	0.0	0.0	0.0	0.0	1.0;
	45.0	0.0	0.0	0.0	0.0	1.05	0.0	1.0	0.0	0.0	0.0	0.0	0.0	0.0	0.0	0.0	0.0	0.0	0.0	0.0	1.0;
	47.0	0.0	0.0	0.0	0.0	1.05	0.0	1.0	0.0	0.0	0.0	0.0	0.0	0.0	0.0	0.0	0.0	0.0	0.0	0.0	1.0;
	37.0	0.0	0.0	0.0	0.0	1.05	0.0	1.0	0.0	0.0	0.0	0.0	0.0	0.0	0.0	0.0	0.0	0.0	0.0	0.0	1.0;
	71.0	0.0	0.0	0.0	0.0	1.05	0.0	1.0	0.0	0.0	0.0	0.0	0.0	0.0	0.0	0.0	0.0	0.0	0.0	0.0	1.0;
	23.0	0.0	0.0	0.0	0.0	1.05	0.0	1.0	0.0	0.0	0.0	0.0	0.0	0.0	0.0	0.0	0.0	0.0	0.0	0.0	1.0;
	25.0	0.0	0.0	0.0	0.0	1.05	0.0	1.0	0.0	0.0	0.0	0.0	0.0	0.0	0.0	0.0	0.0	0.0	0.0	0.0	1.0;
	23.0	0.0	0.0	0.0	0.0	1.05	0.0	1.0	0.0	0.0	0.0	0.0	0.0	0.0	0.0	0.0	0.0	0.0	0.0	0.0	1.0;
	61.0	0.0	0.0	0.0	0.0	1.035	0.0	1.0	0.0	0.0	0.0	0.0	0.0	0.0	0.0	0.0	0.0	0.0	0.0	0.0	1.0;
	23.0	0.0	0.0	0.0	0.0	1.05	0.0	1.0	0.0	0.0	0.0	0.0	0.0	0.0	0.0	0.0	0.0	0.0	0.0	0.0	1.0;
	2.0	0.0	0.0	0.0	0.0	1.047	0.0	1.0	0.0	0.0	0.0	0.0	0.0	0.0	0.0	0.0	0.0	0.0	0.0	0.0	1.0;
	63.0	0.0	0.0	0.0	0.0	1.042	0.0	1.0	0.0	0.0	0.0	0.0	0.0	0.0	0.0	0.0	0.0	0.0	0.0	0.0	1.0;
	2.0	0.0	0.0	0.0	0.0	1.047	0.0	1.0	0.0	0.0	0.0	0.0	0.0	0.0	0.0	0.0	0.0	0.0	0.0	0.0	1.0;
	71.0	0.0	0.0	0.0	0.0	1.05	0.0	1.0	0.0	0.0	0.0	0.0	0.0	0.0	0.0	0.0	0.0	0.0	0.0	0.0	1.0;
	13.0	0.0	0.0	0.0	0.0	1.035	0.0	1.0	0.0	0.0	0.0	0.0	0.0	0.0	0.0	0.0	0.0	0.0	0.0	0.0	1.0;
	21.0	0.0	0.0	4.0	0.0	1.05	400.0	1.0	4.0	0.0	0.0	4.0	0.0	4.0	0.0	4.0	4.0	4.0	4.0	4.0	1.0;
	47.0	0.0	0.0	0.0	0.0	1.05	0.0	1.0	0.0	0.0	0.0	0.0	0.0	0.0	0.0	0.0	0.0	0.0	0.0	0.0	1.0;
	70.0	0.0	0.0	0.0	0.0	1.05	0.0	1.0	0.0	0.0	0.0	0.0	0.0	0.0	0.0	0.0	0.0	0.0	0.0	0.0	1.0;
	47.0	0.0	0.0	0.0	0.0	1.05	0.0	1.0	0.0	0.0	0.0	0.0	0.0	0.0	0.0	0.0	0.0	0.0	0.0	0.0	1.0;
	13.0	0.0	0.0	0.0	0.0	1.035	0.0	1.0	0.0	0.0	0.0	0.0	0.0	0.0	0.0	0.0	0.0	0.0	0.0	0.0	1.0;
	47.0	0.0	0.0	0.0	0.0	1.05	0.0	1.0	0.0	0.0	0.0	0.0	0.0	0.0	0.0	0.0	0.0	0.0	0.0	0.0	1.0;
	55.0	0.0	0.0	0.0	0.0	0.9568	0.0	1.0	0.0	0.0	0.0	0.0	0.0	0.0	0.0	0.0	0.0	0.0	0.0	0.0	1.0;
	49.0	0.0	0.0	0.0	0.0	1.05	0.0	1.0	0.0	0.0	0.0	0.0	0.0	0.0	0.0	0.0	0.0	0.0	0.0	0.0	1.0;
	31.0	0.0	0.0	0.0	0.0	0.9699	0.0	1.0	0.0	0.0	0.0	0.0	0.0	0.0	0.0	0.0	0.0	0.0	0.0	0.0	1.0;
	7.0	0.0	0.0	0.0	0.0	1.05	0.0	1.0	0.0	0.0	0.0	0.0	0.0	0.0	0.0	0.0	0.0	0.0	0.0	0.0	1.0;
	37.0	0.0	0.0	0.0	0.0	1.05	0.0	1.0	0.0	0.0	0.0	0.0	0.0	0.0	0.0	0.0	0.0	0.0	0.0	0.0	1.0;
	23.0	0.0	0.0	0.0	0.0	1.05	0.0	1.0	0.0	0.0	0.0	0.0	0.0	0.0	0.0	0.0	0.0	0.0	0.0	0.0	1.0;
	39.0	0.0	0.0	0.0	0.0	1.044	0.0	1.0	0.0	0.0	0.0	0.0	0.0	0.0	0.0	0.0	0.0	0.0	0.0	0.0	1.0;
	49.0	0.0	0.0	0.0	0.0	1.05	0.0	1.0	0.0	0.0	0.0	0.0	0.0	0.0	0.0	0.0	0.0	0.0	0.0	0.0	1.0;
	23.0	0.0	0.0	0.0	0.0	1.05	0.0	1.0	0.0	0.0	0.0	0.0	0.0	0.0	0.0	0.0	0.0	0.0	0.0	0.0	1.0;
	26.0	0.0	0.0	0.0	0.0	1.05	0.0	1.0	0.0	0.0	0.0	0.0	0.0	0.0	0.0	0.0	0.0	0.0	0.0	0.0	1.0;
	66.0	0.0	0.0	0.0	0.0	1.05	0.0	1.0	0.0	0.0	0.0	0.0	0.0	0.0	0.0	0.0	0.0	0.0	0.0	0.0	1.0;
	39.0	0.0	0.0	0.0	0.0	1.044	0.0	1.0	0.0	0.0	0.0	0.0	0.0	0.0	0.0	0.0	0.0	0.0	0.0	0.0	1.0;
	26.0	0.0	0.0	0.0	0.0	1.05	0.0	1.0	0.0	0.0	0.0	0.0	0.0	0.0	0.0	0.0	0.0	0.0	0.0	0.0	1.0;
	63.0	0.0	0.0	0.0	0.0	1.042	0.0	1.0	0.0	0.0	0.0	0.0	0.0	0.0	0.0	0.0	0.0	0.0	0.0	0.0	1.0;
	18.0	0.0	0.0	0.0	0.0	1.05	0.0	1.0	0.0	0.0	0.0	0.0	0.0	0.0	0.0	0.0	0.0	0.0	0.0	0.0	1.0;
	1.0	0.0	0.0	0.0	0.0	1.047	0.0	1.0	0.0	0.0	0.0	0.0	0.0	0.0	0.0	0.0	0.0	0.0	0.0	0.0	1.0;
	47.0	0.0	0.0	0.0	0.0	1.05	0.0	1.0	0.0	0.0	0.0	0.0	0.0	0.0	0.0	0.0	0.0	0.0	0.0	0.0	1.0;
	64.0	0.0	0.0	0.0	0.0	1.045	0.0	1.0	0.0	0.0	0.0	0.0	0.0	0.0	0.0	0.0	0.0	0.0	0.0	0.0	1.0;
	46.0	0.0	0.06973	0.5	0.0	1.05	50.0	1.0	0.5	0.0	0.0	0.5	0.0	0.5	0.0	0.5	0.5	0.5	0.5	0.5	1.0;
	70.0	0.0	0.0546	0.5	0.0	1.05	50.0	1.0	0.5	0.0	0.0	0.5	0.0	0.5	0.0	0.5	0.5	0.5	0.5	0.5	1.0;
	46.0	0.0	0.06973	0.5	0.0	1.05	50.0	1.0	0.5	0.0	0.0	0.5	0.0	0.5	0.0	0.5	0.5	0.5	0.5	0.5	1.0;
	22.0	0.0	0.0	0.5	0.0	1.05	50.0	1.0	0.5	0.0	0.0	0.5	0.0	0.5	0.0	0.5	0.5	0.5	0.5	0.5	1.0;
	22.0	0.0	0.06794	0.5	0.0	1.05	50.0	1.0	0.5	0.0	0.0	0.5	0.0	0.5	0.0	0.5	0.5	0.5	0.5	0.5	1.0;
	22.0	0.0	0.06794	0.5	0.0	1.05	50.0	1.0	0.5	0.0	0.0	0.5	0.0	0.5	0.0	0.5	0.5	0.5	0.5	0.5	1.0;
	46.0	0.0	0.06973	0.5	0.0	1.05	50.0	1.0	0.5	0.0	0.0	0.5	0.0	0.5	0.0	0.5	0.5	0.5	0.5	0.5	1.0;
	46.0	0.0	0.06973	0.5	0.0	1.05	50.0	1.0	0.5	0.0	0.0	0.5	0.0	0.5	0.0	0.5	0.5	0.5	0.5	0.5	1.0;
	70.0	0.0	0.0546	0.5	0.0	1.05	50.0	1.0	0.5	0.0	0.0	0.5	0.0	0.5	0.0	0.5	0.5	0.5	0.5	0.5	1.0;
	25.0	0.0	-0.04605	0.5	0.0	1.05	50.0	1.0	0.5	0.0	0.0	0.5	0.0	0.5	0.0	0.5	0.5	0.5	0.5	0.5	1.0;
	39.0	0.0	-0.1605	0.5	0.0	1.044	50.0	1.0	0.5	0.0	0.0	0.5	0.0	0.5	0.0	0.5	0.5	0.5	0.5	0.5	1.0;
	22.0	0.0	0.06794	0.5	0.0	1.05	50.0	1.0	0.5	0.0	0.0	0.5	0.0	0.5	0.0	0.5	0.5	0.5	0.5	0.5	1.0;
	22.0	0.0	0.06794	0.5	0.0	1.05	50.0	1.0	0.5	0.0	0.0	0.5	0.0	0.5	0.0	0.5	0.5	0.5	0.5	0.5	1.0;
	70.0	0.0	0.0546	0.5	0.0	1.05	50.0	1.0	0.5	0.0	0.0	0.5	0.0	0.5	0.0	0.5	0.5	0.5	0.5	0.5	1.0;
	39.0	0.0	-0.1605	0.5	0.0	1.044	50.0	1.0	0.5	0.0	0.0	0.5	0.0	0.5	0.0	0.5	0.5	0.5	0.5	0.5	1.0;
	22.0	0.0	0.06794	0.5	0.0	1.05	50.0	1.0	0.5	0.0	0.0	0.5	0.0	0.5	0.0	0.5	0.5	0.5	0.5	0.5	1.0;
	46.0	0.0	0.06973	0.5	0.0	1.05	50.0	1.0	0.5	0.0	0.0	0.5	0.0	0.5	0.0	0.5	0.5	0.5	0.5	0.5	1.0;
	39.0	0.0	-0.1605	0.5	0.0	1.044	50.0	1.0	0.5	0.0	0.0	0.5	0.0	0.5	0.0	0.5	0.5	0.5	0.5	0.5	1.0;
	70.0	0.0	0.0546	0.5	0.0	1.05	50.0	1.0	0.5	0.0	0.0	0.5	0.0	0.5	0.0	0.5	0.5	0.5	0.5	0.5	1.0;
	46.0	0.0	0.0	0.5	0.0	1.05	50.0	1.0	0.5	0.0	0.0	0.5	0.0	0.5	0.0	0.5	0.5	0.5	0.5	0.5	1.0;
];

%% branch data
%	fbus	tbus	r	x	b	rateA	rateB	rateC	ratio	angle	status	angmin	angmax
mpc.branch = [
	67.0	68.0	2.645	21.16	0.0	2.887	2.887	2.887	1.0	0.0	1.0	-1.571	1.571;
	12.0	13.0	3.174	25.39	0.0	2.887	2.887	2.887	1.0	0.0	1.0	-1.571	1.571;
	1.0	3.0	10.47	40.18	0.0	1.01	1.01	1.01	1.0	0.0	1.0	-1.571	1.571;
	31.0	32.0	3.047	11.62	0.0	1.01	1.01	1.01	1.0	0.0	1.0	-1.571	1.571;
	63.0	69.0	3.174	25.92	0.0	2.887	2.887	2.887	1.0	0.0	1.0	-1.571	1.571;
	4.0	9.0	5.142	19.81	0.0	1.01	1.01	1.01	1.0	0.0	1.0	-1.571	1.571;
	62.0	64.0	2.645	31.21	0.0	2.887	2.887	2.887	1.0	0.0	1.0	-1.571	1.571;
	8.0	9.0	8.189	31.42	0.0	1.01	1.01	1.01	1.0	0.0	1.0	-1.571	1.571;
	5.0	10.0	4.38	16.76	0.0	1.01	1.01	1.01	1.0	0.0	1.0	-1.571	1.571;
	15.0	21.0	3.174	25.92	0.0	2.887	2.887	2.887	1.0	0.0	1.0	-1.571	1.571;
	39.0	45.0	3.174	25.92	0.0	2.887	2.887	2.887	1.0	0.0	1.0	-1.571	1.571;
	71.0	73.0	1.0	4.761	0.0	4.168	4.168	4.168	1.0	0.0	1.0	-1.571	1.571;
	32.0	34.0	8.189	31.42	0.0	1.01	1.01	1.01	1.0	0.0	1.0	-1.571	1.571;
	52.0	57.0	5.142	19.81	0.0	1.01	1.01	1.01	1.0	0.0	1.0	-1.571	1.571;
	25.0	27.0	10.47	40.18	0.0	1.01	1.01	1.01	1.0	0.0	1.0	-1.571	1.571;
	16.0	19.0	1.587	12.17	0.0	2.887	2.887	2.887	1.0	0.0	1.0	-1.571	1.571;
	18.0	21.0	1.587	13.75	0.0	2.887	2.887	2.887	1.0	0.0	1.0	-1.571	1.571;
	44.0	47.0	1.587	11.64	0.0	2.887	2.887	2.887	1.0	0.0	1.0	-1.571	1.571;
	56.0	58.0	8.189	31.42	0.0	1.01	1.01	1.01	1.0	0.0	1.0	-1.571	1.571;
	43.0	44.0	2.645	21.16	0.0	2.887	2.887	2.887	1.0	0.0	1.0	-1.571	1.571;
	53.0	58.0	4.38	16.76	0.0	1.01	1.01	1.01	1.0	0.0	1.0	-1.571	1.571;
	27.0	33.0	5.904	22.66	0.0	1.01	1.01	1.01	1.0	0.0	1.0	-1.571	1.571;
	59.0	62.0	2.645	22.22	0.0	2.887	2.887	2.887	1.0	0.0	1.0	-1.571	1.571;
	28.0	33.0	5.142	19.81	0.0	1.01	1.01	1.01	1.0	0.0	1.0	-1.571	1.571;
	2.0	4.0	6.285	24.19	0.0	1.01	1.01	1.01	1.0	0.0	1.0	-1.571	1.571;
	40.0	41.0	1.587	13.75	0.0	2.887	2.887	2.887	1.0	0.0	1.0	-1.571	1.571;
	42.0	45.0	1.587	13.75	0.0	2.887	2.887	2.887	1.0	0.0	1.0	-1.571	1.571;
	26.0	28.0	6.285	24.19	0.0	1.01	1.01	1.01	1.0	0.0	1.0	-1.571	1.571;
	73.0	21.0	6.348	51.31	0.0	2.887	2.887	2.887	1.0	0.0	1.0	-1.571	1.571;
	30.0	34.0	2.666	11.62	0.0	1.01	1.01	1.01	1.0	0.0	1.0	-1.571	1.571;
	51.0	57.0	5.904	22.66	0.0	1.01	1.01	1.01	1.0	0.0	1.0	-1.571	1.571;
	68.0	71.0	1.587	11.64	0.0	2.887	2.887	2.887	1.0	0.0	1.0	-1.571	1.571;
	11.0	14.0	2.645	22.22	0.0	2.887	2.887	2.887	1.0	0.0	1.0	-1.571	1.571;
	15.0	16.0	1.058	8.993	0.0	2.887	2.887	2.887	1.0	0.0	1.0	-1.571	1.571;
	63.0	72.0	3.703	27.51	0.0	2.887	2.887	2.887	1.0	0.0	1.0	-1.571	1.571;
	1.0	5.0	4.19	16.19	0.0	1.01	1.01	1.01	1.0	0.0	1.0	-1.571	1.571;
	50.0	54.0	9.522	36.56	0.0	1.01	1.01	1.01	1.0	0.0	1.0	-1.571	1.571;
	63.0	64.0	1.058	8.993	0.0	2.887	2.887	2.887	1.0	0.0	1.0	-1.571	1.571;
	37.0	47.0	5.819	46.02	0.0	2.887	2.887	2.887	1.0	0.0	1.0	-1.571	1.571;
	64.0	65.0	1.587	13.75	0.0	2.887	2.887	2.887	1.0	0.0	1.0	-1.571	1.571;
	32.0	33.0	8.189	31.42	0.0	1.01	1.01	1.01	1.0	0.0	1.0	-1.571	1.571;
	19.0	20.0	2.645	21.16	0.0	2.887	2.887	2.887	1.0	0.0	1.0	-1.571	1.571;
	21.0	22.0	4.761	35.97	0.0	2.887	2.887	2.887	1.0	0.0	1.0	-1.571	1.571;
	60.0	61.0	3.174	25.39	0.0	2.887	2.887	2.887	1.0	0.0	1.0	-1.571	1.571;
	63.0	69.0	3.174	25.92	0.0	2.887	2.887	2.887	1.0	0.0	1.0	-1.571	1.571;
	66.0	69.0	1.587	13.75	0.0	2.887	2.887	2.887	1.0	0.0	1.0	-1.571	1.571;
	68.0	71.0	1.587	11.64	0.0	2.887	2.887	2.887	1.0	0.0	1.0	-1.571	1.571;
	19.0	20.0	2.645	21.16	0.0	2.887	2.887	2.887	1.0	0.0	1.0	-1.571	1.571;
	49.0	51.0	10.47	40.18	0.0	1.01	1.01	1.01	1.0	0.0	1.0	-1.571	1.571;
	29.0	34.0	4.38	16.76	0.0	1.01	1.01	1.01	1.0	0.0	1.0	-1.571	1.571;
	8.0	10.0	8.189	31.42	0.0	1.01	1.01	1.01	1.0	0.0	1.0	-1.571	1.571;
	38.0	40.0	2.645	31.21	0.0	2.887	2.887	2.887	1.0	0.0	1.0	-1.571	1.571;
	67.0	68.0	2.645	21.16	0.0	2.887	2.887	2.887	1.0	0.0	1.0	-1.571	1.571;
	6.0	10.0	2.666	11.62	0.0	1.01	1.01	1.01	1.0	0.0	1.0	-1.571	1.571;
	13.0	39.0	5.29	39.67	0.0	2.887	2.887	2.887	1.0	0.0	1.0	-1.571	1.571;
	40.0	43.0	1.587	12.17	0.0	2.887	2.887	2.887	1.0	0.0	1.0	-1.571	1.571;
	49.0	50.0	0.5713	2.666	0.0	1.01	1.01	1.01	1.0	0.0	1.0	-1.571	1.571;
	59.0	61.0	3.174	25.39	0.0	2.887	2.887	2.887	1.0	0.0	1.0	-1.571	1.571;
	60.0	71.0	6.348	51.31	0.0	2.887	2.887	2.887	1.0	0.0	1.0	-1.571	1.571;
	56.0	57.0	8.189	31.42	0.0	1.01	1.01	1.01	1.0	0.0	1.0	-1.571	1.571;
	44.0	47.0	1.587	11.64	0.0	2.887	2.887	2.887	1.0	0.0	1.0	-1.571	1.571;
	1.0	2.0	0.5713	2.666	0.0	1.01	1.01	1.01	1.0	0.0	1.0	-1.571	1.571;
	65.0	66.0	1.058	7.406	0.0	2.887	2.887	2.887	1.0	0.0	1.0	-1.571	1.571;
	15.0	24.0	3.703	27.51	0.0	2.887	2.887	2.887	1.0	0.0	1.0	-1.571	1.571;
	50.0	52.0	6.285	24.19	0.0	1.01	1.01	1.01	1.0	0.0	1.0	-1.571	1.571;
	39.0	48.0	3.703	27.51	0.0	2.887	2.887	2.887	1.0	0.0	1.0	-1.571	1.571;
	18.0	21.0	1.587	13.75	0.0	2.887	2.887	2.887	1.0	0.0	1.0	-1.571	1.571;
	36.0	37.0	3.174	25.39	0.0	2.887	2.887	2.887	1.0	0.0	1.0	-1.571	1.571;
	55.0	56.0	3.047	11.62	0.0	1.01	1.01	1.01	1.0	0.0	1.0	-1.571	1.571;
	66.0	47.0	6.877	55.02	0.0	2.887	2.887	2.887	1.0	0.0	1.0	-1.571	1.571;
	13.0	23.0	5.819	46.02	0.0	2.887	2.887	2.887	1.0	0.0	1.0	-1.571	1.571;
	25.0	29.0	4.19	16.19	0.0	1.01	1.01	1.01	1.0	0.0	1.0	-1.571	1.571;
	23.0	41.0	5.29	39.15	0.0	2.887	2.887	2.887	1.0	0.0	1.0	-1.571	1.571;
	16.0	17.0	1.587	13.75	0.0	2.887	2.887	2.887	1.0	0.0	1.0	-1.571	1.571;
	26.0	30.0	9.522	36.56	0.0	1.01	1.01	1.01	1.0	0.0	1.0	-1.571	1.571;
	35.0	37.0	3.174	25.39	0.0	2.887	2.887	2.887	1.0	0.0	1.0	-1.571	1.571;
	49.0	53.0	4.19	16.19	0.0	1.01	1.01	1.01	1.0	0.0	1.0	-1.571	1.571;
	17.0	18.0	1.058	7.406	0.0	2.887	2.887	2.887	1.0	0.0	1.0	-1.571	1.571;
	25.0	26.0	0.5713	2.666	0.0	1.01	1.01	1.01	1.0	0.0	1.0	-1.571	1.571;
	42.0	45.0	1.587	13.75	0.0	2.887	2.887	2.887	1.0	0.0	1.0	-1.571	1.571;
	43.0	44.0	2.645	21.16	0.0	2.887	2.887	2.887	1.0	0.0	1.0	-1.571	1.571;
	39.0	40.0	1.058	8.993	0.0	2.887	2.887	2.887	1.0	0.0	1.0	-1.571	1.571;
	41.0	42.0	1.058	7.406	0.0	2.887	2.887	2.887	1.0	0.0	1.0	-1.571	1.571;
	36.0	47.0	6.348	51.31	0.0	2.887	2.887	2.887	1.0	0.0	1.0	-1.571	1.571;
	61.0	71.0	5.819	46.02	0.0	2.887	2.887	2.887	1.0	0.0	1.0	-1.571	1.571;
	12.0	23.0	6.348	51.31	0.0	2.887	2.887	2.887	1.0	0.0	1.0	-1.571	1.571;
	54.0	58.0	2.666	11.62	0.0	1.01	1.01	1.01	1.0	0.0	1.0	-1.571	1.571;
	14.0	16.0	2.645	31.21	0.0	2.887	2.887	2.887	1.0	0.0	1.0	-1.571	1.571;
	7.0	8.0	3.047	11.62	0.0	1.01	1.01	1.01	1.0	0.0	1.0	-1.571	1.571;
	11.0	13.0	3.174	25.39	0.0	2.887	2.887	2.887	1.0	0.0	1.0	-1.571	1.571;
	20.0	23.0	1.587	11.64	0.0	2.887	2.887	2.887	1.0	0.0	1.0	-1.571	1.571;
	2.0	6.0	9.522	36.56	0.0	1.01	1.01	1.01	1.0	0.0	1.0	-1.571	1.571;
	20.0	23.0	1.587	11.64	0.0	2.887	2.887	2.887	1.0	0.0	1.0	-1.571	1.571;
	45.0	46.0	4.761	35.97	0.0	2.887	2.887	2.887	1.0	0.0	1.0	-1.571	1.571;
	65.0	70.0	7.406	55.54	0.0	2.887	2.887	2.887	1.0	0.0	1.0	-1.571	1.571;
	66.0	69.0	1.587	13.75	0.0	2.887	2.887	2.887	1.0	0.0	1.0	-1.571	1.571;
	7.0	27.0	7.998	30.66	0.0	1.01	1.01	1.01	1.0	0.0	1.0	-1.571	1.571;
	64.0	67.0	1.587	12.17	0.0	2.887	2.887	2.887	1.0	0.0	1.0	-1.571	1.571;
	39.0	45.0	3.174	25.92	0.0	2.887	2.887	2.887	1.0	0.0	1.0	-1.571	1.571;
	17.0	22.0	7.406	55.54	0.0	2.887	2.887	2.887	1.0	0.0	1.0	-1.571	1.571;
	35.0	38.0	2.645	22.22	0.0	2.887	2.887	2.887	1.0	0.0	1.0	-1.571	1.571;
	41.0	46.0	7.406	55.54	0.0	2.887	2.887	2.887	1.0	0.0	1.0	-1.571	1.571;
	3.0	9.0	5.904	22.66	0.0	1.01	1.01	1.01	1.0	0.0	1.0	-1.571	1.571;
	15.0	21.0	3.174	25.92	0.0	2.887	2.887	2.887	1.0	0.0	1.0	-1.571	1.571;
	69.0	70.0	4.761	35.97	0.0	2.887	2.887	2.887	1.0	0.0	1.0	-1.571	1.571;
	24.0	3.0	0.008	0.336	0.0	0.004	0.004	0.004	1.0	0.0	1.0	-0.7854	0.7854;
	35.0	33.0	0.008	0.336	0.0	0.004	0.004	0.004	1.0	0.0	1.0	-0.7854	0.7854;
	59.0	58.0	0.008	0.336	0.0	0.004	0.004	0.004	1.0	0.0	1.0	-0.7854	0.7854;
	59.0	57.0	0.008	0.336	0.0	0.004	0.004	0.004	1.0	0.0	1.0	-0.7854	0.7854;
	12.0	9.0	0.008	0.336	0.0	0.004	0.004	0.004	1.0	0.0	1.0	-0.7854	0.7854;
	60.0	58.0	0.008	0.336	0.0	0.004	0.004	0.004	1.0	0.0	1.0	-0.7854	0.7854;
	11.0	9.0	0.008	0.336	0.0	0.004	0.004	0.004	1.0	0.0	1.0	-0.7854	0.7854;
	72.0	51.0	0.008	0.336	0.0	0.004	0.004	0.004	1.0	0.0	1.0	-0.7854	0.7854;
	35.0	34.0	0.008	0.336	0.0	0.004	0.004	0.004	1.0	0.0	1.0	-0.7854	0.7854;
	12.0	10.0	0.008	0.336	0.0	0.004	0.004	0.004	1.0	0.0	1.0	-0.7854	0.7854;
	36.0	34.0	0.008	0.336	0.0	0.004	0.004	0.004	1.0	0.0	1.0	-0.7854	0.7854;
	60.0	57.0	0.008	0.336	0.0	0.004	0.004	0.004	1.0	0.0	1.0	-0.7854	0.7854;
	48.0	27.0	0.008	0.336	0.0	0.004	0.004	0.004	1.0	0.0	1.0	-0.7854	0.7854;
	11.0	10.0	0.008	0.336	0.0	0.004	0.004	0.004	1.0	0.0	1.0	-0.7854	0.7854;
	36.0	33.0	0.008	0.336	0.0	0.004	0.004	0.004	1.0	0.0	1.0	-0.7854	0.7854;
];

%%-----  OPF Data  -----%%
%% generator cost data
%	1	startup	shutdown	n	x1	y1	...	xn	yn
%	2	startup	shutdown	n	c(n-1)	...	c0
mpc.gencost = [
	2.0	0.0	0.0	1.0	0.0;
	2.0	0.0	0.0	1.0	0.0;
	2.0	0.0	0.0	1.0	0.0;
	2.0	0.0	0.0	1.0	0.0;
	2.0	0.0	0.0	1.0	2.3;
	2.0	0.0	0.0	1.0	0.0;
	2.0	0.0	0.0	1.0	0.0;
	2.0	0.0	0.0	1.0	0.0;
	2.0	0.0	0.0	1.0	0.0;
	2.0	0.0	0.0	1.0	0.0;
	2.0	0.0	0.0	1.0	0.0;
	2.0	0.0	0.0	1.0	0.0;
	2.0	0.0	0.0	1.0	0.0;
	2.0	0.0	0.0	1.0	0.0;
	2.0	0.0	0.0	1.0	0.0;
	2.0	0.0	0.0	1.0	0.0;
	2.0	0.0	0.0	1.0	0.0;
	2.0	0.0	0.0	1.0	0.0;
	2.0	0.0	0.0	1.0	0.0;
	2.0	0.0	0.0	1.0	0.0;
	2.0	0.0	0.0	1.0	0.0;
	2.0	0.0	0.0	1.0	0.0;
	2.0	0.0	0.0	1.0	0.0;
	2.0	0.0	0.0	1.0	0.0;
	2.0	0.0	0.0	1.0	0.0;
	2.0	0.0	0.0	1.0	0.0;
	2.0	0.0	0.0	1.0	0.0;
	2.0	0.0	0.0	1.0	0.0;
	2.0	0.0	0.0	1.0	0.0;
	2.0	0.0	0.0	1.0	0.0;
	2.0	0.0	0.0	1.0	0.0;
	2.0	0.0	0.0	1.0	0.0;
	2.0	0.0	0.0	1.0	2.3;
	2.0	0.0	0.0	1.0	0.0;
	2.0	0.0	0.0	1.0	0.0;
	2.0	0.0	0.0	1.0	0.0;
	2.0	0.0	0.0	1.0	0.0;
	2.0	0.0	0.0	1.0	0.0;
	2.0	0.0	0.0	1.0	0.0;
	2.0	0.0	0.0	1.0	0.0;
	2.0	0.0	0.0	1.0	0.0;
	2.0	0.0	0.0	1.0	0.0;
	2.0	0.0	0.0	1.0	0.0;
	2.0	0.0	0.0	1.0	0.0;
	2.0	0.0	0.0	1.0	0.0;
	2.0	0.0	0.0	1.0	0.0;
	2.0	0.0	0.0	1.0	0.0;
	2.0	0.0	0.0	1.0	0.0;
	2.0	0.0	0.0	1.0	0.0;
	2.0	0.0	0.0	1.0	0.0;
	2.0	0.0	0.0	1.0	0.0;
	2.0	0.0	0.0	1.0	0.0;
	2.0	0.0	0.0	1.0	0.0;
	2.0	0.0	0.0	1.0	0.0;
	2.0	0.0	0.0	1.0	0.0;
	2.0	0.0	0.0	1.0	2.3;
	2.0	0.0	0.0	1.0	0.0;
	2.0	0.0	0.0	1.0	0.0;
	2.0	0.0	0.0	1.0	0.0;
	2.0	0.0	0.0	1.0	2.3;
	2.0	0.0	0.0	1.0	58.38;
	2.0	0.0	0.0	1.0	58.38;
	2.0	0.0	0.0	1.0	58.38;
	2.0	0.0	0.0	1.0	58.38;
	2.0	0.0	0.0	1.0	24.1;
	2.0	0.0	0.0	1.0	24.1;
	2.0	0.0	0.0	1.0	24.1;
	2.0	0.0	0.0	1.0	24.1;
	2.0	0.0	0.0	1.0	58.38;
	2.0	0.0	0.0	1.0	47.2;
	2.0	0.0	0.0	1.0	58.38;
	2.0	0.0	0.0	1.0	24.1;
	2.0	0.0	0.0	1.0	47.2;
	2.0	0.0	0.0	1.0	47.2;
	2.0	0.0	0.0	1.0	58.38;
	2.0	0.0	0.0	1.0	47.2;
	2.0	0.0	0.0	1.0	58.38;
	2.0	0.0	0.0	1.0	58.38;
	2.0	0.0	0.0	1.0	47.2;
	2.0	0.0	0.0	1.0	24.1;
	2.0	0.0	0.0	1.0	24.1;
	2.0	0.0	0.0	1.0	58.38;
	2.0	0.0	0.0	1.0	47.2;
	2.0	0.0	0.0	1.0	58.38;
	2.0	0.0	0.0	1.0	24.1;
	2.0	0.0	0.0	1.0	58.38;
	2.0	0.0	0.0	1.0	24.1;
	2.0	0.0	0.0	1.0	47.2;
	2.0	0.0	0.0	1.0	58.38;
	2.0	0.0	0.0	1.0	16.9;
	2.0	0.0	0.0	1.0	58.38;
	2.0	0.0	0.0	1.0	58.38;
	2.0	0.0	0.0	1.0	24.1;
	2.0	0.0	0.0	1.0	58.38;
	2.0	0.0	0.0	1.0	24.1;
	2.0	0.0	0.0	1.0	58.38;
	2.0	0.0	0.0	1.0	58.38;
	2.0	0.0	0.0	1.0	58.38;
	2.0	0.0	0.0	1.0	47.2;
	2.0	0.0	0.0	1.0	58.38;
	2.0	0.0	0.0	1.0	24.1;
	2.0	0.0	0.0	1.0	58.38;
	2.0	0.0	0.0	1.0	58.38;
	2.0	0.0	0.0	1.0	58.38;
	2.0	0.0	0.0	1.0	24.1;
	2.0	0.0	0.0	1.0	47.2;
	2.0	0.0	0.0	1.0	58.38;
	2.0	0.0	0.0	1.0	24.1;
	2.0	0.0	0.0	1.0	58.38;
	2.0	0.0	0.0	1.0	47.2;
	2.0	0.0	0.0	1.0	24.1;
	2.0	0.0	0.0	1.0	58.38;
	2.0	0.0	0.0	1.0	24.1;
	2.0	0.0	0.0	1.0	0.0;
	2.0	0.0	0.0	1.0	0.0;
	2.0	0.0	0.0	1.0	0.0;
	2.0	0.0	0.0	1.0	0.0;
	2.0	0.0	0.0	1.0	0.0;
	2.0	0.0	0.0	1.0	0.0;
	2.0	0.0	0.0	1.0	0.0;
	2.0	0.0	0.0	1.0	0.0;
	2.0	0.0	0.0	1.0	0.0;
	2.0	0.0	0.0	1.0	0.0;
	2.0	0.0	0.0	1.0	0.0;
	2.0	0.0	0.0	1.0	0.0;
	2.0	0.0	0.0	1.0	0.0;
	2.0	0.0	0.0	1.0	0.0;
	2.0	0.0	0.0	1.0	0.0;
	2.0	0.0	0.0	1.0	0.0;
	2.0	0.0	0.0	1.0	0.0;
	2.0	0.0	0.0	1.0	0.0;
	2.0	0.0	0.0	1.0	0.0;
	2.0	0.0	0.0	1.0	0.0;
];

%% bus names
mpc.bus_name = {
	"buses_ABEL";
	"buses_ADAMS";
	"buses_ADLER";
	"buses_AGRICOLA";
	"buses_AIKEN";
	"buses_ALBER";
	"buses_ALDER";
	"buses_ALGER";
	"buses_ALI";
	"buses_ALLEN";
	"buses_ANNA";
	"buses_ARCHER";
	"buses_ARNE";
	"buses_ARNOLD";
	"buses_ARTHUR";
	"buses_ASSER";
	"buses_ASTON";
	"buses_ASTOR";
	"buses_ATTAR";
	"buses_ATTILA";
	"buses_ATTLEE";
	"buses_AUBREY";
	"buses_AUSTEN";
	"buses_AVERY";
	"buses_BACH";
	"buses_BACON";
	"buses_BAFFIN";
	"buses_BAILEY";
	"buses_BAIN";
	"buses_BAJER";
	"buses_BAKER";
	"buses_BALCH";
	"buses_BALZAC";
	"buses_BANKS";
	"buses_BARDEEN";
	"buses_BARKLA";
	"buses_BARLOW";
	"buses_BARRY";
	"buses_BARTON";
	"buses_BASOV";
	"buses_BATES";
	"buses_BAYLE";
	"buses_BEDE";
	"buses_BEETHOVEN";
	"buses_BEHRING";
	"buses_BELL";
	"buses_BLOCH";
	"buses_BORDET";
	"buses_CABELL";
	"buses_CABOT";
	"buses_CAESAR";
	"buses_CAINE";
	"buses_CALVIN";
	"buses_CAMUS";
	"buses_CAREW";
	"buses_CARREL";
	"buses_CARTER";
	"buses_CARUSO";
	"buses_CARY";
	"buses_CAXTON";
	"buses_CECIL";
	"buses_CHAIN";
	"buses_CHASE";
	"buses_CHIFA";
	"buses_CHUHSI";
	"buses_CLARK";
	"buses_CLAY";
	"buses_CLIVE";
	"buses_COBB";
	"buses_COLE";
	"buses_COMTE";
	"buses_CURIE";
	"buses_CURTISS";
};
